testData/tamu2000/pfcases_100_fullsys/texas2000_hr_4891_mod_23_pslf.raw
0  100.000 
THIS IS A SYNTHETIC POWER SYSTEM MODEL THAT DOES NOT REPRESE
DATA RESEARCH PROJECT AND CONTAINS NO CEII.
1001,  1,  0.000,  0.000,  0.000,  0.000,  1,  1.00226,  -119.7796,  'ODESSA 2',  115.00,  9
1002,  1,  0.000,  0.000,  0.000,  0.000,  1,  1.02691,  -125.7397,  'PRESIDIO',  115.00,  9
1003,  1,  0.000,  0.000,  0.000,  0.000,  1,  1.02310,  -129.1069,  'O DONNEL',  115.00,  9
1004,  1,  -8.941,  30.380,  0.000,  0.000,  1,  1.02416,  -128.1027,  'O DONNEL',  230.00,  9
1005,  1,  0.000,  0.000,  0.000,  0.000,  1,  1.01293,  -132.1191,  'BIG SPRI',  115.00,  9
1006,  1,  -1.454,  4.940,  0.000,  0.000,  1,  1.00674,  -131.9768,  'BIG SPRI',  13.800,  9
1007,  1,  0.000,  -7.150,  0.000,  0.000,  1,  1.02998,  -122.2911,  'VAN HORN',  115.00,  9
1008,  1,  0.000,  0.000,  0.000,  0.000,  1,  1.01490,  -127.2110,  'IRAAN 2 ',  115.00,  9
1009,  1,  -3.496,  11.631,  0.000,  0.000,  1,  1.00408,  -126.9950,  'IRAAN 2 ',  13.800,  9
1010,  1,  0.000,  -0.833,  0.000,  0.000,  1,  1.02997,  -125.7162,  'PRESIDIO',  115.00,  9
1011,  2,  0.000,  0.000,  0.000,  0.000,  1,  1.02997,  -125.7162,  'PRESIDIO',  22.000,  9
1012,  1,  0.000,  -3.017,  0.000,  0.000,  1,  1.02992,  -134.5423,  'SANDERSO',  115.00,  9
1013,  1,  0.000,  0.000,  0.000,  0.000,  1,  0.98703,  -110.3128,  'MONAHANS',  115.00,  9
1014,  1,  0.000,  0.000,  0.000,  0.000,  1,  0.98360,  -114.8209,  'GRANDFAL',  115.00,  9
1015,  1,  0.000,  0.000,  0.000,  0.000,  1,  1.03183,  -124.8892,  'MARFA 0 ',  115.00,  9
1016,  1,  0.000,  -31.248,  0.000,  0.000,  1,  1.02057,  -134.8692,  'GARDEN C',  115.00,  9
1017,  1,  0.000,  0.000,  0.000,  0.000,  1,  0.97626,  -120.5683,  'ODESSA 4',  115.00,  9
1018,  1,  0.000,  0.000,  0.000,  0.000,  1,  0.97531,  -120.7859,  'NOTREES ',  115.00,  9
1019,  1,  0.001,  -148.692,  0.000,  0.000,  1,  1.01978,  -120.6853,  'MIDLAND ',  115.00,  9
1020,  1,  -0.001,  -81.066,  0.000,  0.000,  1,  1.02785,  -130.2769,  'BIG SPRI',  115.00,  9
1021,  1,  -8.454,  28.730,  0.000,  0.000,  1,  1.00579,  -129.8588,  'BIG SPRI',  13.800,  9
1022,  1,  0.000,  0.000,  0.000,  0.000,  1,  1.02387,  -128.9189,  'O DONNEL',  115.00,  9
1023,  1,  -7.627,  12.081,  0.000,  0.000,  1,  1.01020,  -128.3873,  'O DONNEL',  13.800,  9
1024,  1,  0.000,  0.000,  0.000,  0.000,  1,  0.97464,  -120.9530,  'ODESSA 6',  115.00,  9
1025,  1,  0.000,  0.000,  0.000,  0.000,  1,  1.01997,  -130.6967,  'BIG SPRI',  115.00,  9
1026,  1,  -5.263,  15.529,  0.000,  0.000,  1,  1.00043,  -130.1992,  'BIG SPRI',  13.800,  9
1027,  1,  -0.001,  -71.602,  0.000,  0.000,  1,  1.02999,  -130.4208,  'MIDLAND ',  115.00,  9
1028,  1,  0.000,  0.000,  0.000,  0.000,  1,  1.02912,  -128.7211,  'COAHOMA ',  115.00,  9
1029,  1,  -0.001,  -39.665,  0.000,  0.000,  1,  0.99580,  -130.2562,  'MIDLAND ',  115.00,  9
1030,  1,  0.000,  0.000,  0.000,  0.000,  1,  1.01191,  -126.4438,  'ALPINE 0',  115.00,  9
1031,  1,  0.000,  0.000,  0.000,  0.000,  1,  1.00513,  -116.8381,  'FORT DAV',  115.00,  9
1032,  1,  0.000,  0.000,  0.000,  0.000,  1,  1.01420,  -124.8878,  'MCCAMEY ',  115.00,  9
1033,  1,  -11.780,  -11.162,  0.000,  0.000,  1,  1.01183,  -121.5294,  'MCCAMEY ',  230.00,  9
1034,  1,  0.000,  0.000,  0.000,  0.000,  1,  1.00525,  -133.9039,  'BIG SPRI',  115.00,  9
1035,  1,  -3.814,  5.117,  0.000,  0.000,  1,  1.00107,  -133.7066,  'BIG SPRI',  13.800,  9
1036,  1,  0.000,  0.000,  0.000,  0.000,  1,  1.00583,  -128.4584,  'CRANE 0 ',  115.00,  9
1037,  1,  0.000,  0.000,  0.000,  0.000,  1,  0.98145,  -120.6777,  'ODESSA 5',  115.00,  9
1038,  1,  0.000,  0.000,  0.000,  0.000,  1,  1.00714,  -124.8629,  'FORT STO',  115.00,  9
1039,  1,  -6.251,  3.478,  0.000,  0.000,  1,  1.00427,  -124.5547,  'FORT STO',  22.000,  9
1040,  1,  0.000,  0.000,  0.000,  0.000,  1,  0.98930,  -121.3725,  'ANDREWS ',  115.00,  9
1041,  1,  0.000,  0.000,  0.000,  0.000,  1,  1.00296,  -133.3143,  'FORSAN 0',  115.00,  9
1042,  2,  0.000,  0.000,  0.000,  0.000,  1,  1.00296,  -133.3143,  'FORSAN 1',  13.800,  9
1043,  1,  -2.492,  1.904,  0.000,  0.000,  1,  1.00059,  -133.1283,  'FORSAN 2',  13.800,  9
1044,  1,  0.000,  0.000,  0.000,  0.000,  1,  1.01819,  -135.0737,  'BIG LAKE',  115.00,  9
1045,  1,  0.000,  0.000,  0.000,  0.000,  1,  1.00044,  -123.1691,  'MIDLAND ',  115.00,  9
1046,  1,  0.000,  -4.534,  0.000,  0.000,  1,  1.02995,  -134.2864,  'OZONA 0 ',  115.00,  9
1047,  1,  0.000,  0.000,  0.000,  0.000,  1,  0.98639,  -107.0408,  'MONAHANS',  115.00,  9
1048,  2,  0.000,  0.000,  0.000,  0.000,  1,  1.00000,  -96.3595,  'MONAHANS',  18.000,  9
1049,  2,  0.000,  0.000,  0.000,  0.000,  1,  1.00000,  -87.6137,  'MONAHANS',  18.000,  9
1050,  2,  0.000,  0.000,  0.000,  0.000,  1,  0.98639,  -107.0408,  'MONAHANS',  18.000,  9
1051,  2,  0.000,  0.000,  0.000,  0.000,  1,  0.98639,  -107.0408,  'MONAHANS',  18.000,  9
1052,  2,  0.000,  0.000,  0.000,  0.000,  1,  0.98639,  -107.0408,  'MONAHANS',  18.000,  9
1053,  2,  0.000,  0.000,  0.000,  0.000,  1,  1.00172,  -112.7673,  'MONAHANS',  230.00,  9
1054,  1,  0.000,  0.000,  0.000,  0.000,  1,  1.01963,  -132.0748,  'STANTON ',  115.00,  9
1055,  1,  0.000,  0.000,  0.000,  0.000,  1,  1.01795,  -129.7877,  'ODONNELL',  115.00,  9
1056,  1,  0.001,  -71.893,  0.000,  0.000,  1,  1.02999,  -131.5637,  'LENORAH ',  115.00,  9
1057,  2,  0.000,  0.000,  0.000,  0.000,  1,  1.02999,  -131.5637,  'LENORAH ',  18.000,  9
1058,  1,  0.000,  0.000,  0.000,  0.000,  1,  1.02316,  -129.1947,  'IRAAN 3 ',  115.00,  9
1059,  2,  0.000,  0.000,  0.000,  0.000,  1,  1.02316,  -129.1947,  'IRAAN 3 ',  22.000,  9
1060,  2,  0.000,  0.000,  0.000,  0.000,  1,  1.02316,  -129.1947,  'IRAAN 3 ',  22.000,  9
1061,  1,  0.000,  0.000,  0.000,  0.000,  1,  1.01669,  -131.7075,  'BIG SPRI',  115.00,  9
1062,  2,  0.000,  0.000,  0.000,  0.000,  1,  1.01669,  -131.7075,  'BIG SPRI',  13.800,  9
1063,  2,  0.000,  0.000,  0.000,  0.000,  1,  1.01669,  -131.7075,  'BIG SPRI',  13.800,  9
1064,  1,  0.000,  0.000,  0.000,  0.000,  1,  0.99677,  -121.4469,  'ODESSA 3',  115.00,  9
1065,  1,  0.000,  0.000,  0.000,  0.000,  1,  1.00631,  -132.9827,  'BIG SPRI',  115.00,  9
1066,  1,  -6.039,  4.938,  0.000,  0.000,  1,  1.00051,  -132.5452,  'BIG SPRI',  13.800,  9
1067,  1,  0.000,  0.000,  0.000,  0.000,  1,  1.00030,  -133.5978,  'BIG SPRI',  115.00,  9
1068,  1,  0.000,  0.000,  0.000,  0.000,  1,  0.99327,  -135.5240,  'MIDLAND ',  115.00,  9
1069,  1,  0.000,  0.000,  0.000,  0.000,  1,  1.02113,  -128.0385,  'IRAAN 1 ',  115.00,  9
1070,  1,  -6.801,  -32.180,  0.000,  0.000,  1,  1.04292,  -127.8338,  'IRAAN 1 ',  13.800,  9
1071,  1,  0.000,  0.000,  0.000,  0.000,  1,  1.00853,  -118.3319,  'ODESSA 1',  115.00,  9
1072,  3,  0.000,  0.000,  0.000,  0.000,  1,  1.01000,  -110.6337,  'ODESSA 1',  18.000,  9
1073,  2,  0.000,  0.000,  0.000,  0.000,  1,  1.01000,  -108.1606,  'ODESSA 1',  18.000,  9
1074,  2,  0.000,  0.000,  0.000,  0.000,  1,  1.01000,  -108.6170,  'ODESSA 1',  18.000,  9
1075,  2,  0.000,  0.000,  0.000,  0.000,  1,  1.01000,  -110.5648,  'ODESSA 1',  18.000,  9
1076,  2,  0.000,  0.000,  0.000,  0.000,  1,  1.01000,  -114.4905,  'ODESSA 1',  18.000,  9
1077,  2,  0.000,  0.000,  0.000,  0.000,  1,  1.01000,  -108.9350,  'ODESSA 1',  18.000,  9
1078,  2,  0.000,  0.000,  0.000,  0.000,  1,  1.00853,  -118.3319,  'ODESSA 1',  18.000,  9
1079,  2,  0.000,  0.000,  0.000,  0.000,  1,  1.04432,  -123.9648,  'ODESSA 1',  500.00,  9
1080,  2,  0.000,  0.000,  0.000,  0.000,  1,  1.00853,  -118.3319,  'ODESSA 1',  18.000,  9
1081,  2,  0.000,  0.000,  0.000,  0.000,  1,  1.01000,  -116.9209,  'ODESSA 1',  230.00,  9
1082,  1,  -6.356,  21.600,  0.000,  0.000,  1,  1.00538,  -125.7601,  'FORT STO',  115.00,  9
1083,  1,  0.000,  -26.367,  0.000,  0.000,  1,  1.00412,  -123.9638,  'FORT STO',  115.00,  9
1084,  1,  -4.894,  -24.600,  0.000,  0.000,  1,  1.02701,  -129.1236,  'BIG SPRI',  115.00,  9
1085,  1,  0.000,  0.000,  0.000,  0.000,  1,  0.98380,  -111.6531,  'KERMIT 0',  115.00,  9
1086,  1,  0.000,  -29.460,  0.000,  0.000,  1,  0.99096,  -113.3161,  'PECOS 0 ',  115.00,  9
1087,  1,  0.000,  -5.523,  0.000,  0.000,  1,  1.02995,  -131.2746,  'SHEFFIEL',  115.00,  9
1088,  1,  -3.178,  -6.019,  0.000,  0.000,  1,  1.00489,  -131.2689,  'MCCAMEY ',  115.00,  9
1089,  1,  0.000,  0.000,  0.000,  0.000,  1,  1.00501,  -131.7133,  'LAMESA 0',  115.00,  9
1090,  1,  -3.051,  -40.150,  0.000,  0.000,  1,  0.99445,  -118.9368,  'GOLDSMIT',  115.00,  9
1091,  1,  0.000,  0.000,  0.000,  0.000,  1,  1.03998,  -131.5220,  'RALLS 2 ',  161.00,  9
2001,  1,  0.000,  0.000,  0.000,  0.000,  2,  1.00297,  -127.4678,  'PARIS 3 ',  161.00,  11
2002,  1,  0.000,  0.000,  0.000,  0.000,  2,  1.02315,  -125.0729,  'SAVOY 0 ',  500.00,  11
2003,  1,  0.000,  0.000,  0.000,  0.000,  2,  1.02085,  -127.4283,  'SAVOY 1 ',  161.00,  11
2004,  2,  0.000,  0.000,  0.000,  0.000,  2,  1.02000,  -124.1241,  'SAVOY 2 ',  13.800,  11
2005,  2,  0.000,  0.000,  0.000,  0.000,  2,  1.02000,  -123.9632,  'SAVOY 3 ',  13.800,  11
2006,  2,  0.000,  0.000,  0.000,  0.000,  2,  1.02000,  -123.3415,  'SAVOY 4 ',  13.800,  11
2007,  1,  0.000,  0.000,  0.000,  0.000,  2,  1.01114,  -126.5149,  'HONEY GR',  161.00,  11
2008,  1,  0.000,  0.000,  0.000,  0.000,  2,  1.02476,  -132.0101,  'MEMPHIS ',  161.00,  10
2009,  1,  -0.016,  -82.521,  0.000,  0.000,  2,  1.03000,  -129.9062,  'IOWA PAR',  161.00,  11
2010,  1,  -0.001,  -13.608,  0.000,  0.000,  2,  1.02999,  -133.9462,  'VERNON 2',  161.00,  10
2011,  1,  0.000,  0.000,  0.000,  0.000,  2,  1.03911,  -128.0622,  'PANHANDL',  500.00,  10
2012,  1,  0.000,  0.000,  0.000,  0.000,  2,  1.03075,  -128.6556,  'PANHANDL',  161.00,  10
2013,  1,  -7.897,  28.890,  0.000,  0.000,  2,  1.03102,  -127.9332,  'PANHANDL',  18.000,  10
2014,  1,  0.000,  0.000,  0.000,  0.000,  2,  1.02559,  -132.8941,  'CHILDRES',  161.00,  10
2015,  1,  0.000,  0.000,  0.000,  0.000,  2,  1.01932,  -133.0655,  'FORESTBU',  161.00,  11
2016,  1,  0.000,  0.000,  0.000,  0.000,  2,  1.01775,  -132.4736,  'SHERMAN ',  161.00,  11
2017,  1,  0.000,  213.200,  0.000,  0.000,  2,  1.03247,  -127.9356,  'PANHANDL',  500.00,  10
2018,  1,  0.000,  0.000,  0.000,  0.000,  2,  1.03327,  -128.1853,  'PANHANDL',  161.00,  10
2019,  2,  0.000,  0.000,  0.000,  0.000,  2,  1.03247,  -127.9356,  'PANHANDL',  20.000,  10
2020,  1,  0.000,  0.000,  0.000,  0.000,  2,  1.01900,  -127.5646,  'WICHITA ',  161.00,  11
2021,  1,  0.000,  0.000,  0.000,  0.000,  2,  1.02300,  -123.7612,  'PARIS 2 ',  500.00,  11
2022,  1,  0.000,  0.000,  0.000,  0.000,  2,  1.01329,  -126.0425,  'PARIS 2 ',  161.00,  11
2023,  2,  0.000,  0.000,  0.000,  0.000,  2,  1.02300,  -123.7612,  'PARIS 2 ',  13.800,  11
2024,  2,  0.000,  0.000,  0.000,  0.000,  2,  1.02000,  -122.1606,  'PARIS 2 ',  13.800,  11
2025,  1,  0.000,  0.000,  0.000,  0.000,  2,  1.01619,  -127.2073,  'WICHITA ',  161.00,  11
2026,  1,  0.000,  0.000,  0.000,  0.000,  2,  1.03016,  -128.7068,  'WHEELER ',  161.00,  10
2027,  1,  0.000,  0.000,  0.000,  0.000,  2,  1.00118,  -128.0060,  'DEPORT 0',  161.00,  11
2028,  1,  0.000,  0.000,  0.000,  0.000,  2,  1.01855,  -129.0874,  'WICHITA ',  161.00,  11
2029,  1,  0.000,  0.000,  0.000,  0.000,  2,  1.03267,  -132.5773,  'SILVERTO',  161.00,  10
2030,  1,  0.000,  0.000,  0.000,  0.000,  2,  0.99325,  -130.1277,  'BONHAM 0',  161.00,  11
2031,  1,  0.000,  0.000,  0.000,  0.000,  2,  1.04163,  -132.4180,  'MATADOR ',  161.00,  10
2032,  1,  0.000,  0.000,  0.000,  0.000,  2,  1.01325,  -126.0296,  'ARTHUR C',  161.00,  11
2033,  1,  0.000,  0.000,  0.000,  0.000,  2,  0.97997,  -132.6832,  'LEONARD ',  161.00,  11
2034,  1,  0.000,  0.000,  0.000,  0.000,  2,  1.01770,  -131.9901,  'GORDONVI',  161.00,  11
2035,  1,  0.000,  0.000,  0.000,  0.000,  2,  1.03788,  -132.9977,  'KNOX CIT',  161.00,  10
2036,  1,  0.000,  0.000,  0.000,  0.000,  2,  1.01908,  -127.7928,  'WICHITA ',  161.00,  11
2037,  1,  0.000,  0.000,  0.000,  0.000,  2,  1.02784,  -132.8504,  'LINDSAY ',  161.00,  11
2038,  1,  0.000,  0.000,  0.000,  0.000,  2,  1.01534,  -128.2984,  'ECTOR 0 ',  161.00,  11
2039,  1,  0.000,  0.000,  0.000,  0.000,  2,  1.00431,  -132.5520,  'SUNSET 0',  161.00,  11
2040,  1,  0.000,  0.000,  0.000,  0.000,  2,  1.01023,  -126.7163,  'CLARKSVI',  161.00,  11
2041,  1,  0.000,  0.000,  0.000,  0.000,  2,  1.02495,  -128.5069,  'PANHANDL',  161.00,  10
2042,  1,  -1.825,  11.460,  0.000,  0.000,  2,  1.01614,  -128.4145,  'PANHANDL',  18.000,  10
2043,  1,  0.000,  0.000,  0.000,  0.000,  2,  1.01759,  -132.2162,  'SADLER 0',  161.00,  11
2044,  1,  0.000,  0.000,  0.000,  0.000,  2,  1.02398,  -130.9328,  'WHITESBO',  161.00,  11
2045,  1,  0.000,  0.000,  0.000,  0.000,  2,  1.01843,  -127.9245,  'SHEPPARD',  161.00,  11
2046,  1,  0.000,  0.000,  0.000,  0.000,  2,  1.01815,  -131.6960,  'POTTSBOR',  161.00,  11
2047,  1,  0.000,  0.000,  0.000,  0.000,  2,  1.02011,  -128.1846,  'BELLS 0 ',  161.00,  11
2048,  1,  0.000,  0.000,  0.000,  0.000,  2,  1.04126,  -132.5273,  'CROSBYTO',  161.00,  10
2049,  1,  0.000,  0.000,  0.000,  0.000,  2,  1.02715,  -130.9382,  'ELECTRA ',  161.00,  10
2050,  1,  0.000,  0.000,  0.000,  0.000,  2,  0.97611,  -131.9018,  'PATTONVI',  161.00,  11
2051,  1,  0.000,  0.000,  0.000,  0.000,  2,  1.01455,  -131.2410,  'HENRIETT',  161.00,  11
2052,  1,  0.000,  0.000,  0.000,  0.000,  2,  1.02367,  -130.9336,  'PANHANDL',  161.00,  10
2053,  1,  0.000,  0.000,  0.000,  0.000,  2,  1.00346,  -129.9103,  'BOWIE 0 ',  161.00,  11
2054,  1,  0.000,  0.000,  0.000,  0.000,  2,  1.02173,  -126.1270,  'WICHITA ',  500.00,  11
2055,  1,  0.000,  0.000,  0.000,  0.000,  2,  1.02049,  -126.9518,  'WICHITA ',  161.00,  11
2056,  2,  0.000,  0.000,  0.000,  0.000,  2,  1.02173,  -126.1270,  'WICHITA ',  18.000,  11
2057,  3,  0.000,  0.000,  0.000,  0.000,  2,  0.99000,  -123.7791,  'WICHITA ',  18.000,  11
2058,  1,  0.000,  0.000,  0.000,  0.000,  2,  1.02326,  -128.4652,  'WHITE DE',  161.00,  10
2059,  1,  -2.871,  11.520,  0.000,  0.000,  2,  1.01193,  -128.2708,  'WHITE DE',  13.800,  10
2060,  1,  0.000,  0.000,  0.000,  0.000,  2,  0.98187,  -130.4789,  'ROXTON 0',  161.00,  11
2061,  1,  0.000,  0.000,  0.000,  0.000,  2,  1.02587,  -131.4197,  'VERNON 1',  161.00,  10
2062,  1,  -24.101,  15.484,  0.000,  0.000,  2,  1.01997,  -130.8646,  'VERNON 1',  18.000,  10
2063,  1,  -0.001,  -41.623,  0.000,  0.000,  2,  1.02009,  -131.1735,  'DENISON ',  161.00,  11
2064,  1,  0.000,  0.000,  0.000,  0.000,  2,  0.99721,  -128.1796,  'SUMNER 0',  161.00,  11
2065,  1,  -0.006,  -75.489,  0.000,  0.000,  2,  1.03000,  -132.8415,  'GAINESVI',  161.00,  11
2066,  1,  0.000,  0.000,  0.000,  0.000,  2,  1.03726,  -132.2414,  'ASPERMON',  161.00,  10
2067,  1,  0.000,  0.000,  0.000,  0.000,  2,  1.01255,  -127.3206,  'WICHITA ',  161.00,  11
2068,  1,  0.000,  0.000,  0.000,  0.000,  2,  1.01146,  -126.1461,  'WINDTHOR',  161.00,  11
2069,  1,  -0.087,  -86.462,  0.000,  0.000,  2,  1.03000,  -131.5681,  'HOWE 0  ',  161.00,  11
2070,  1,  0.000,  0.000,  0.000,  0.000,  2,  1.01239,  -125.7247,  'ARCHER 2',  161.00,  11
2071,  1,  -22.856,  21.527,  0.000,  0.000,  2,  1.00031,  -124.9708,  'ARCHER 2',  18.000,  11
2072,  1,  0.000,  0.000,  0.000,  0.000,  2,  1.02713,  -129.9455,  'COLLINSV',  161.00,  11
2073,  1,  0.000,  0.000,  0.000,  0.000,  2,  1.03599,  -131.4685,  'JAYTON 0',  161.00,  10
2074,  1,  0.000,  0.000,  0.000,  0.000,  2,  1.02967,  -131.8166,  'JAYTON 1',  115.00,  10
2075,  1,  0.000,  0.000,  0.000,  0.000,  2,  1.02967,  -131.8166,  'JAYTON 2',  115.00,  10
2076,  1,  -1.271,  -5.737,  0.000,  0.000,  2,  1.04011,  -131.4291,  'JAYTON 3',  24.000,  10
2077,  1,  0.000,  0.000,  0.000,  0.000,  2,  1.02738,  -132.5360,  'MUENSTER',  161.00,  11
2078,  1,  -17.143,  10.966,  0.000,  0.000,  2,  1.01997,  -131.8549,  'MUENSTER',  13.800,  11
2079,  1,  0.000,  0.000,  0.000,  0.000,  2,  1.03622,  -133.5113,  'PADUCAH ',  161.00,  10
2080,  1,  0.000,  0.000,  0.000,  0.000,  2,  1.01537,  -131.9877,  'NOCONA 0',  161.00,  11
2081,  1,  0.000,  0.000,  0.000,  0.000,  2,  1.00580,  -129.8462,  'DODD CIT',  161.00,  11
2082,  1,  0.000,  0.000,  0.000,  0.000,  2,  1.01970,  -128.5084,  'WICHITA ',  161.00,  11
2083,  2,  0.000,  0.000,  0.000,  0.000,  2,  1.01970,  -128.5084,  'WICHITA ',  20.000,  11
2084,  2,  0.000,  0.000,  0.000,  0.000,  2,  1.01970,  -128.5084,  'WICHITA ',  20.000,  11
2085,  2,  0.000,  0.000,  0.000,  0.000,  2,  1.01970,  -128.5084,  'WICHITA ',  20.000,  11
2086,  1,  0.000,  0.000,  0.000,  0.000,  2,  1.00888,  -132.3607,  'MONTAGUE',  161.00,  11
2087,  1,  0.000,  0.000,  0.000,  0.000,  2,  1.03920,  -132.0860,  'SPUR 0  ',  161.00,  10
2088,  1,  0.000,  0.000,  0.000,  0.000,  2,  1.01144,  -125.9588,  'ARCHER 1',  161.00,  11
2089,  1,  -10.301,  9.165,  0.000,  0.000,  2,  1.00026,  -125.2221,  'ARCHER 1',  24.000,  11
2090,  1,  0.000,  0.000,  0.000,  0.000,  2,  0.99722,  -128.8646,  'ANNONA 0',  161.00,  11
2091,  1,  0.000,  0.000,  0.000,  0.000,  2,  1.03548,  -133.6793,  'SEYMOUR ',  161.00,  10
2092,  1,  0.000,  0.000,  0.000,  0.000,  2,  1.01904,  -129.7147,  'DENISON ',  161.00,  11
2093,  1,  0.000,  0.000,  0.000,  0.000,  2,  1.03248,  -128.4416,  'PANHANDL',  161.00,  10
2094,  2,  0.000,  0.000,  0.000,  0.000,  2,  1.03248,  -128.4416,  'PANHANDL',  13.800,  10
2095,  2,  0.000,  0.000,  0.000,  0.000,  2,  1.03248,  -128.4416,  'PANHANDL',  13.800,  10
2096,  1,  -0.003,  114.380,  0.000,  0.000,  2,  1.03000,  -127.9681,  'RALLS 1 ',  500.00,  10
2097,  1,  0.000,  0.000,  0.000,  0.000,  2,  1.03150,  -128.1298,  'RALLS 1 ',  230.00,  10
2098,  1,  0.000,  0.000,  0.000,  0.000,  2,  1.04024,  -130.9815,  'RALLS 1 ',  161.00,  10
2099,  1,  -2.384,  1.440,  0.000,  0.000,  2,  1.02952,  -127.9230,  'RALLS 1 ',  18.000,  10
2100,  2,  0.000,  0.000,  0.000,  0.000,  2,  1.02119,  -127.1342,  'RALLS 1 ',  18.000,  10
2101,  1,  0.000,  0.000,  0.000,  0.000,  2,  1.02372,  -125.7650,  'SHERMAN ',  500.00,  11
2102,  1,  0.000,  0.000,  0.000,  0.000,  2,  1.02498,  -127.3059,  'SHERMAN ',  161.00,  11
2103,  2,  0.000,  0.000,  0.000,  0.000,  2,  1.02017,  -125.2102,  'SHERMAN ',  20.000,  11
2104,  2,  0.000,  0.000,  0.000,  0.000,  2,  1.01902,  -125.0379,  'SHERMAN ',  20.000,  11
2105,  2,  0.000,  0.000,  0.000,  0.000,  2,  1.01637,  -124.6112,  'SHERMAN ',  20.000,  11
2106,  1,  0.000,  0.000,  0.000,  0.000,  2,  0.98658,  -132.1735,  'WHITEWRI',  161.00,  11
2107,  1,  0.000,  0.000,  0.000,  0.000,  2,  1.02148,  -127.9994,  'SHERMAN ',  161.00,  11
2108,  1,  0.000,  0.000,  0.000,  0.000,  2,  1.02327,  -130.5125,  'ROCHESTE',  161.00,  10
2109,  1,  0.000,  0.000,  0.000,  0.000,  2,  1.02314,  -129.8328,  'BURKBURN',  161.00,  11
...
 0 /End of Bus data, Begin Generator data
1011,  '1',  0.000,  0.000,  0.000,  0.000,  1.00000,  0,  12.000,  0.00000,  1.00000,  0.00000,  0.00000,  1.00000,  0,  100.0,  10.000,  3.000
1042,  '1',  0.000,  -8.502,  25.960,  -17.550,  1.00000,  0,  146.280,  0.00000,  1.00000,  0.00000,  0.00000,  1.00000,  0,  100.0,  121.900,  36.570
1048,  '1',  279.670,  32.436,  165.530,  -36.100,  1.00000,  0,  390.240,  0.00000,  0.10170,  0.00000,  0.00000,  1.00000,  1,  100.0,  325.200,  97.560
1049,  '1',  279.670,  52.660,  165.530,  -36.100,  1.00000,  0,  390.240,  0.00000,  0.13490,  0.00000,  0.00000,  1.00000,  1,  100.0,  325.200,  97.560
1050,  '1',  0.000,  -6.604,  45.500,  -9.920,  1.00000,  0,  107.280,  0.00000,  0.27770,  0.00000,  0.00000,  1.00000,  0,  100.0,  89.400,  26.820
1051,  '1',  0.000,  -4.791,  45.500,  -9.920,  1.00000,  0,  107.280,  0.00000,  0.31740,  0.00000,  0.00000,  1.00000,  0,  100.0,  89.400,  26.820
1052,  '1',  0.000,  -9.920,  45.500,  -9.920,  1.00000,  0,  107.280,  0.00000,  0.27810,  0.00000,  0.00000,  1.00000,  0,  100.0,  89.400,  26.820
1053,  '1',  128.740,  -19.850,  91.010,  -19.850,  1.00000,  0,  214.560,  0.00000,  0.16870,  0.00000,  0.00000,  1.00000,  1,  100.0,  178.800,  53.640
1057,  '1',  0.000,  -17.280,  25.560,  -17.280,  1.00000,  0,  144.000,  0.00000,  1.00000,  0.00000,  0.00000,  1.00000,  0,  100.0,  120.000,  36.000
1059,  '1',  0.000,  0.000,  2.850,  -0.620,  1.04000,  0,  6.720,  0.00000,  0.22770,  0.00000,  0.00000,  1.00000,  0,  100.0,  5.600,  1.680
1060,  '1',  0.000,  0.000,  1.020,  -0.220,  1.04000,  0,  2.400,  0.00000,  0.16300,  0.00000,  0.00000,  1.00000,  0,  100.0,  2.000,  0.600
1062,  '1',  0.000,  0.000,  0.000,  0.000,  1.01000,  0,  1.800,  0.00000,  1.00000,  0.00000,  0.00000,  1.00000,  0,  100.0,  1.500,  0.450
1063,  '1',  0.000,  0.000,  0.000,  0.000,  1.01000,  0,  276.000,  0.00000,  1.00000,  0.00000,  0.00000,  1.00000,  0,  100.0,  230.000,  69.000
1072,  '1',  159.730,  2.593,  97.800,  -21.330,  1.01000,  0,  230.560,  0.00000,  0.30820,  0.00000,  0.00000,  1.00000,  1,  100.0,  192.130,  57.640
1073,  '1',  138.330,  -0.376,  97.800,  -21.330,  1.01000,  0,  230.560,  0.00000,  0.19480,  0.00000,  0.00000,  1.00000,  1,  100.0,  192.130,  57.640
1074,  '1',  138.330,  6.536,  97.800,  -21.330,  1.01000,  0,  230.560,  0.00000,  0.20960,  0.00000,  0.00000,  1.00000,  1,  100.0,  192.130,  57.640
1075,  '1',  138.330,  5.690,  97.800,  -21.330,  1.01000,  0,  230.560,  0.00000,  0.12370,  0.00000,  0.00000,  1.00000,  1,  100.0,  192.130,  57.640
1076,  '1',  138.330,  3.695,  97.800,  -21.330,  1.01000,  0,  230.560,  0.00000,  0.10660,  0.00000,  0.00000,  1.00000,  1,  100.0,  192.130,  57.640
1077,  '1',  138.330,  5.220,  97.800,  -21.330,  1.01000,  0,  230.560,  0.00000,  0.15380,  0.00000,  0.00000,  1.00000,  1,  100.0,  192.130,  57.640
1078,  '1',  0.000,  16.268,  48.610,  -10.600,  1.01000,  0,  114.600,  0.00000,  0.28520,  0.00000,  0.00000,  1.00000,  0,  100.0,  95.500,  28.650
1079,  '1',  0.000,  -10.600,  48.610,  -10.600,  1.01000,  0,  114.600,  0.00000,  0.17260,  0.00000,  0.00000,  1.00000,  0,  100.0,  95.500,  28.650
1080,  '1',  0.000,  13.126,  48.610,  -10.600,  1.01000,  0,  114.600,  0.00000,  0.15430,  0.00000,  0.00000,  1.00000,  0,  100.0,  95.500,  28.650
1081,  '1',  246.390,  -5.261,  145.830,  -31.800,  1.01000,  0,  343.800,  0.00000,  0.14960,  0.00000,  0.00000,  1.00000,  1,  100.0,  286.500,  85.950
2004,  '1',  117.540,  -22.698,  199.430,  -43.490,  1.02000,  0,  470.160,  0.00000,  0.10640,  0.00000,  0.00000,  1.00000,  1,  100.0,  391.800,  117.540
2005,  '1',  117.540,  -19.861,  199.430,  -43.490,  1.02000,  0,  470.160,  0.00000,  0.22750,  0.00000,  0.00000,  1.00000,  1,  100.0,  391.800,  117.540
2006,  '1',  117.540,  -11.791,  199.430,  -43.490,  1.02000,  0,  470.160,  0.00000,  0.20040,  0.00000,  0.00000,  1.00000,  1,  100.0,  391.800,  117.540
2019,  '1',  0.000,  -0.062,  46.430,  -31.390,  1.04000,  0,  261.600,  0.00000,  1.00000,  0.00000,  0.00000,  1.00000,  0,  100.0,  218.000,  65.400
2023,  '1',  0.000,  15.439,  42.420,  -9.250,  1.02000,  0,  100.000,  0.00000,  0.29440,  0.00000,  0.00000,  1.00000,  0,  100.0,  83.330,  25.000
2024,  '1',  120.000,  -12.718,  84.830,  -18.500,  1.02000,  0,  200.000,  0.00000,  0.15080,  0.00000,  0.00000,  1.00000,  1,  100.0,  166.670,  50.000
2056,  '1',  0.000,  0.000,  2.800,  -0.730,  0.99000,  0,  7.200,  0.00000,  0.24920,  0.00000,  0.00000,  1.00000,  0,  100.0,  6.000,  1.800
2057,  '1',  309.208,  -237.244,  335.520,  -87.840,  0.99000,  0,  864.000,  0.00000,  0.17700,  0.00000,  0.00000,  1.00000,  1,  100.0,  720.000,  216.000
2083,  '1',  0.000,  10.080,  10.180,  -2.220,  1.02000,  0,  24.000,  0.00000,  0.16410,  0.00000,  0.00000,  1.00000,  0,  100.0,  20.000,  6.000
2084,  '1',  0.000,  0.000,  10.180,  -2.220,  1.02000,  0,  24.000,  0.00000,  0.23120,  0.00000,  0.00000,  1.00000,  0,  100.0,  20.000,  6.000
2085,  '1',  0.000,  0.000,  20.360,  -4.440,  1.02000,  0,  48.000,  0.00000,  0.22690,  0.00000,  0.00000,  1.00000,  0,  100.0,  40.000,  12.000
2094,  '1',  0.000,  -1.440,  2.130,  -1.440,  1.00000,  0,  12.000,  0.00000,  1.00000,  0.00000,  0.00000,  1.00000,  0,  100.0,  10.000,  3.000
2095,  '1',  0.000,  -11.450,  16.930,  -11.450,  1.00000,  0,  95.400,  0.00000,  1.00000,  0.00000,  0.00000,  1.00000,  0,  100.0,  79.500,  23.850
2100,  '1',  35.761,  -21.600,  31.950,  -21.600,  1.02000,  0,  180.000,  0.00000,  1.00000,  0.00000,  0.00000,  1.00000,  1,  100.0,  150.000,  45.000
2103,  '1',  80.320,  -29.720,  136.280,  -29.720,  1.00000,  0,  321.280,  0.00000,  0.33430,  0.00000,  0.00000,  1.00000,  1,  100.0,  267.730,  80.320
2104,  '1',  80.320,  -29.720,  136.280,  -29.720,  1.00000,  0,  321.280,  0.00000,  0.31470,  0.00000,  0.00000,  1.00000,  1,  100.0,  267.730,  80.320
2105,  '1',  80.320,  -29.720,  136.280,  -29.720,  1.00000,  0,  321.280,  0.00000,  0.14160,  0.00000,  0.00000,  1.00000,  1,  100.0,  267.730,  80.320
2115,  '1',  133.000,  -20.500,  94.020,  -20.500,  1.00000,  0,  221.660,  0.00000,  0.14250,  0.00000,  0.00000,  1.00000,  1,  100.0,  184.720,  55.410
2116,  '1',  133.000,  -20.500,  94.020,  -20.500,  1.00000,  0,  221.660,  0.00000,  0.18690,  0.00000,  0.00000,  1.00000,  1,  100.0,  184.720,  55.410
2117,  '1',  133.000,  -20.500,  94.020,  -20.500,  1.00000,  0,  221.660,  0.00000,  0.32540,  0.00000,  0.00000,  1.00000,  1,  100.0,  184.720,  55.410
2118,  '1',  133.000,  -20.500,  94.020,  -20.500,  1.00000,  0,  221.660,  0.00000,  0.10610,  0.00000,  0.00000,  1.00000,  1,  100.0,  184.720,  55.410
2119,  '1',  133.000,  -20.500,  94.020,  -20.500,  1.00000,  0,  221.660,  0.00000,  0.13600,  0.00000,  0.00000,  1.00000,  1,  100.0,  184.720,  55.410
2120,  '1',  133.000,  -20.500,  94.020,  -20.500,  1.01000,  0,  221.660,  0.00000,  0.20680,  0.00000,  0.00000,  1.00000,  1,  100.0,  184.720,  55.410
3028,  '1',  30.475,  14.568,  42.600,  -28.800,  1.04000,  0,  240.000,  0.00000,  1.00000,  0.00000,  0.00000,  1.00000,  1,  100.0,  200.000,  60.000
3043,  '1',  0.000,  0.000,  0.660,  -0.140,  1.04000,  0,  1.560,  0.00000,  0.27280,  0.00000,  0.00000,  1.00000,  0,  100.0,  1.300,  0.390
3044,  '1',  0.000,  0.000,  45.500,  -9.920,  1.04000,  0,  107.280,  0.00000,  0.17000,  0.00000,  0.00000,  1.00000,  0,  100.0,  89.400,  26.820
3045,  '1',  259.260,  17.638,  227.520,  -49.620,  1.04000,  0,  536.400,  0.00000,  0.14470,  0.00000,  0.00000,  1.00000,  1,  100.0,  447.000,  134.100
3087,  '1',  0.000,  -8.912,  15.970,  -10.800,  1.00000,  0,  90.000,  0.00000,  1.00000,  0.00000,  0.00000,  1.00000,  0,  100.0,  75.000,  22.500
3106,  '1',  33.600,  -10.793,  62.477,  -2.690,  1.00000,  0,  65.880,  0.00000,  0.29220,  0.00000,  0.00000,  1.00000,  1,  100.0,  162.800,  0.000
3120,  '1',  0.000,  0.000,  0.000,  0.000,  1.00000,  0,  47.520,  0.00000,  1.00000,  0.00000,  0.00000,  1.00000,  0,  100.0,  39.600,  11.880
3133,  '1',  0.000,  26.110,  26.110,  -5.690,  1.04000,  0,  61.560,  0.00000,  0.10470,  0.00000,  0.00000,  1.00000,  0,  100.0,  51.300,  15.390
4026,  '1',  123.000,  89.281,  191.060,  -50.020,  1.03000,  0,  492.000,  0.00000,  0.32770,  0.00000,  0.00000,  1.00000,  1,  100.0,  410.000,  123.000
4030,  '1',  184.482,  292.817,  290.040,  -75.930,  1.01000,  0,  746.880,  0.00000,  0.27970,  0.00000,  0.00000,  1.00000,  1,  100.0,  622.400,  186.720
4047,  '1',  43.602,  5.255,  75.102,  -3.230,  1.02000,  0,  79.200,  0.00000,  0.32270,  0.00000,  0.00000,  1.00000,  1,  100.0,  195.700,  0.000
4052,  '1',  0.000,  22.500,  22.500,  -4.910,  1.04000,  0,  53.040,  0.00000,  0.28510,  0.00000,  0.00000,  1.00000,  0,  100.0,  44.200,  13.260
4058,  '1',  103.680,  33.320,  73.300,  -15.980,  1.03000,  0,  172.800,  0.00000,  0.13700,  0.00000,  0.00000,  1.00000,  1,  100.0,  144.000,  43.200
4059,  '1',  103.680,  37.070,  73.300,  -15.980,  1.03000,  0,  172.800,  0.00000,  0.15140,  0.00000,  0.00000,  1.00000,  1,  100.0,  144.000,  43.200
4060,  '1',  103.680,  24.385,  73.300,  -15.980,  1.03000,  0,  172.800,  0.00000,  0.13940,  0.00000,  0.00000,  1.00000,  1,  100.0,  144.000,  43.200
4061,  '1',  124.080,  34.270,  87.720,  -19.130,  1.03000,  0,  206.800,  0.00000,  0.21560,  0.00000,  0.00000,  1.00000,  1,  100.0,  172.330,  51.700
4062,  '1',  124.080,  26.886,  87.720,  -19.130,  1.03000,  0,  206.800,  0.00000,  0.25930,  0.00000,  0.00000,  1.00000,  1,  100.0,  172.330,  51.700
4063,  '1',  124.080,  35.379,  87.720,  -19.130,  1.03000,  0,  206.800,  0.00000,  0.14410,  0.00000,  0.00000,  1.00000,  1,  100.0,  172.330,  51.700
4065,  '1',  0.000,  13.408,  23.920,  -5.220,  1.02000,  0,  56.400,  0.00000,  0.15920,  0.00000,  0.00000,  1.00000,  0,  100.0,  47.000,  14.100
4075,  '1',  0.000,  0.000,  89.750,  -19.570,  1.03000,  0,  211.600,  0.00000,  0.11980,  0.00000,  0.00000,  1.00000,  0,  100.0,  176.330,  52.900
4076,  '1',  0.000,  23.562,  89.750,  -19.570,  1.03000,  0,  211.600,  0.00000,  0.13140,  0.00000,  0.00000,  1.00000,  0,  100.0,  176.330,  52.900
4077,  '1',  0.000,  17.974,  89.750,  -19.570,  1.03000,  0,  211.600,  0.00000,  0.23730,  0.00000,  0.00000,  1.00000,  0,  100.0,  176.330,  52.900
4082,  '1',  209.320,  38.971,  123.890,  -27.020,  1.04000,  0,  292.080,  0.00000,  0.13810,  0.00000,  0.00000,  1.00000,  1,  100.0,  243.400,  73.020
4083,  '1',  209.320,  41.048,  123.890,  -27.020,  1.04000,  0,  292.080,  0.00000,  0.15700,  0.00000,  0.00000,  1.00000,  1,  100.0,  243.400,  73.020
4084,  '1',  209.320,  68.957,  123.890,  -27.020,  1.04000,  0,  292.080,  0.00000,  0.19110,  0.00000,  0.00000,  1.00000,  1,  100.0,  243.400,  73.020
4085,  '1',  352.000,  81.944,  179.170,  -39.070,  1.04000,  0,  422.400,  0.00000,  0.31920,  0.00000,  0.00000,  1.00000,  1,  100.0,  352.000,  105.600
4090,  '1',  0.000,  0.000,  0.650,  -0.170,  1.01000,  0,  1.680,  0.00000,  0.23450,  0.00000,  0.00000,  1.00000,  0,  100.0,  1.400,  0.420
4091,  '1',  0.000,  2.447,  10.950,  -2.870,  1.01000,  0,  28.200,  0.00000,  0.13620,  0.00000,  0.00000,  1.00000,  0,  100.0,  23.500,  7.050
4092,  '1',  0.000,  0.000,  3.540,  -0.930,  1.01000,  0,  9.120,  0.00000,  0.10570,  0.00000,  0.00000,  1.00000,  0,  100.0,  7.600,  2.280
4093,  '1',  0.000,  1.299,  13.050,  -3.420,  1.01000,  0,  33.600,  0.00000,  0.12560,  0.00000,  0.00000,  1.00000,  0,  100.0,  28.000,  8.400
4094,  '1',  0.000,  4.863,  13.050,  -3.420,  1.01000,  0,  33.600,  0.00000,  0.35660,  0.00000,  0.00000,  1.00000,  0,  100.0,  28.000,  8.400
4095,  '1',  0.000,  2.145,  13.050,  -3.420,  1.01000,  0,  33.600,  0.00000,  0.24030,  0.00000,  0.00000,  1.00000,  0,  100.0,  28.000,  8.400
4096,  '1',  0.000,  0.000,  13.050,  -3.420,  1.01000,  0,  33.600,  0.00000,  0.23980,  0.00000,  0.00000,  1.00000,  0,  100.0,  28.000,  8.400
4097,  '1',  0.000,  1.867,  13.050,  -3.420,  1.01000,  0,  33.600,  0.00000,  0.22170,  0.00000,  0.00000,  1.00000,  0,  100.0,  28.000,  8.400
4098,  '1',  0.000,  0.000,  13.050,  -3.420,  1.01000,  0,  33.600,  0.00000,  0.24690,  0.00000,  0.00000,  1.00000,  0,  100.0,  28.000,  8.400
4115,  '1',  39.540,  37.488,  67.090,  -14.630,  1.04000,  0,  158.160,  0.00000,  0.11310,  0.00000,  0.00000,  1.00000,  1,  100.0,  131.800,  39.540
4116,  '1',  39.540,  35.244,  67.090,  -14.630,  1.04000,  0,  158.160,  0.00000,  0.15150,  0.00000,  0.00000,  1.00000,  1,  100.0,  131.800,  39.540
4133,  '1',  0.000,  0.000,  17.100,  -3.730,  1.00000,  0,  40.320,  0.00000,  0.22730,  0.00000,  0.00000,  1.00000,  0,  100.0,  33.600,  10.080
4134,  '1',  0.000,  -3.730,  17.100,  -3.730,  1.00000,  0,  40.320,  0.00000,  0.18000,  0.00000,  0.00000,  1.00000,  0,  100.0,  33.600,  10.080
4135,  '1',  0.000,  -3.730,  17.100,  -3.730,  1.00000,  0,  40.320,  0.00000,  0.10840,  0.00000,  0.00000,  1.00000,  0,  100.0,  33.600,  10.080
4136,  '1',  0.000,  -3.730,  17.100,  -3.730,  1.00000,  0,  40.320,  0.00000,  0.18960,  0.00000,  0.00000,  1.00000,  0,  100.0,  33.600,  10.080
4137,  '1',  0.000,  0.000,  34.200,  -7.460,  1.00000,  0,  80.640,  0.00000,  0.27350,  0.00000,  0.00000,  1.00000,  0,  100.0,  67.200,  20.160
4138,  '1',  0.000,  0.000,  33.590,  -7.330,  1.00000,  0,  79.200,  0.00000,  0.16760,  0.00000,  0.00000,  1.00000,  0,  100.0,  66.000,  19.800
4160,  '1',  142.390,  85.528,  100.660,  -21.950,  1.03000,  0,  237.320,  0.00000,  0.18820,  0.00000,  0.00000,  1.00000,  1,  100.0,  197.770,  59.330
4161,  '1',  142.390,  38.888,  100.660,  -21.950,  1.03000,  0,  237.320,  0.00000,  0.12390,  0.00000,  0.00000,  1.00000,  1,  100.0,  197.770,  59.330
4162,  '1',  142.390,  36.205,  100.660,  -21.950,  1.03000,  0,  237.320,  0.00000,  0.17220,  0.00000,  0.00000,  1.00000,  1,  100.0,  197.770,  59.330
4163,  '1',  0.000,  0.000,  4.580,  -1.000,  1.03000,  0,  10.800,  0.00000,  0.23060,  0.00000,  0.00000,  1.00000,  0,  100.0,  9.000,  2.700
4181,  '1',  30.489,  42.620,  42.620,  -28.810,  1.04000,  0,  240.120,  0.00000,  1.00000,  0.00000,  0.00000,  1.00000,  1,  100.0,  200.100,  60.030
4192,  '1',  1085.790,  114.778,  688.320,  -150.120,  1.02000,  0,  1622.76,  0.00000,  0.14340,  0.00000,  0.00000,  1.00000,  1,  100.0,  1352.31,  405.690
5023,  '1',  0.000,  0.000,  2.440,  -0.530,  1.04000,  0,  5.760,  0.00000,  0.15290,  0.00000,  0.00000,  1.00000,  0,  100.0,  4.800,  1.440
5035,  '1',  0.000,  0.000,  2.140,  -0.470,  1.02000,  0,  5.040,  0.00000,  0.14180,  0.00000,  0.00000,  1.00000,  0,  100.0,  4.200,  1.260
5036,  '1',  0.000,  3.260,  3.260,  -0.710,  1.02000,  0,  7.680,  0.00000,  0.14370,  0.00000,  0.00000,  1.00000,  0,  100.0,  6.400,  1.920
5037,  '1',  308.470,  -16.485,  157.010,  -34.240,  1.02000,  0,  370.160,  0.00000,  0.29910,  0.00000,  0.00000,  1.00000,  1,  100.0,  308.470,  92.540
5038,  '1',  308.470,  -15.132,  157.010,  -34.240,  1.02000,  0,  370.160,  0.00000,  0.12330,  0.00000,  0.00000,  1.00000,  1,  100.0,  308.470,  92.540
5039,  '1',  308.470,  -34.240,  157.010,  -34.240,  1.02000,  0,  370.160,  0.00000,  0.21470,  0.00000,  0.00000,  1.00000,  1,  100.0,  308.470,  92.540
5040,  '1',  308.470,  -11.806,  157.010,  -34.240,  1.02000,  0,  370.160,  0.00000,  0.19240,  0.00000,  0.00000,  1.00000,  1,  100.0,  308.470,  92.540
5041,  '1',  308.470,  -19.867,  157.010,  -34.240,  1.02000,  0,  370.160,  0.00000,  0.11590,  0.00000,  0.00000,  1.00000,  1,  100.0,  308.470,  92.540
5042,  '1',  308.470,  -13.325,  157.010,  -34.240,  1.02000,  0,  370.160,  0.00000,  0.19130,  0.00000,  0.00000,  1.00000,  1,  100.0,  308.470,  92.540
5051,  '1',  0.000,  43.110,  43.110,  -9.400,  1.02000,  0,  101.640,  0.00000,  0.12480,  0.00000,  0.00000,  1.00000,  0,  100.0,  84.700,  25.410
5057,  '1',  317.350,  -35.230,  161.530,  -35.230,  1.00000,  0,  380.820,  0.00000,  0.19130,  0.00000,  0.00000,  1.00000,  1,  100.0,  317.350,  95.200
5058,  '1',  317.350,  -35.230,  161.530,  -35.230,  1.00000,  0,  380.820,  0.00000,  0.29820,  0.00000,  0.00000,  1.00000,  1,  100.0,  317.350,  95.200
5065,  '1',  0.000,  5.400,  5.400,  -1.180,  1.03000,  0,  12.720,  0.00000,  0.13710,  0.00000,  0.00000,  1.00000,  0,  100.0,  10.600,  3.180
5066,  '1',  0.000,  0.920,  0.920,  -0.200,  1.03000,  0,  2.160,  0.00000,  0.13100,  0.00000,  0.00000,  1.00000,  0,  100.0,  1.800,  0.540
5067,  '1',  438.270,  34.103,  223.080,  -48.650,  1.03000,  0,  525.920,  0.00000,  0.32610,  0.00000,  0.00000,  1.00000,  1,  100.0,  438.270,  131.480
5068,  '1',  438.270,  31.097,  223.080,  -48.650,  1.03000,  0,  525.920,  0.00000,  0.11690,  0.00000,  0.00000,  1.00000,  1,  100.0,  438.270,  131.480
5069,  '1',  438.270,  29.041,  223.080,  -48.650,  1.03000,  0,  525.920,  0.00000,  0.10560,  0.00000,  0.00000,  1.00000,  1,  100.0,  438.270,  131.480
5106,  '1',  0.000,  0.000,  5.030,  -1.320,  1.04000,  0,  12.960,  0.00000,  0.31910,  0.00000,  0.00000,  1.00000,  0,  100.0,  10.800,  3.240
5107,  '1',  0.000,  0.000,  2.660,  -0.700,  1.04000,  0,  6.840,  0.00000,  0.27550,  0.00000,  0.00000,  1.00000,  0,  100.0,  5.700,  1.710
5166,  '1',  91.080,  39.331,  64.390,  -14.040,  1.04000,  0,  151.800,  0.00000,  0.13910,  0.00000,  0.00000,  1.00000,  1,  100.0,  126.500,  37.950
5167,  '1',  0.000,  0.810,  0.810,  -0.180,  1.04000,  0,  1.920,  0.00000,  0.10670,  0.00000,  0.00000,  1.00000,  0,  100.0,  1.600,  0.480
5206,  '1',  248.670,  -27.600,  126.570,  -27.600,  1.01000,  0,  298.400,  0.00000,  0.11980,  0.00000,  0.00000,  1.00000,  1,  100.0,  248.670,  74.600
5207,  '1',  248.670,  -27.600,  126.570,  -27.600,  1.01000,  0,  298.400,  0.00000,  0.18090,  0.00000,  0.00000,  1.00000,  1,  100.0,  248.670,  74.600
5208,  '1',  248.670,  -27.600,  126.570,  -27.600,  1.01000,  0,  298.400,  0.00000,  0.10560,  0.00000,  0.00000,  1.00000,  1,  100.0,  248.670,  74.600
5238,  '1',  34.285,  -32.400,  47.930,  -32.400,  1.00000,  0,  270.000,  0.00000,  1.00000,  0.00000,  0.00000,  1.00000,  1,  100.0,  225.000,  67.500
5262,  '1',  1215.000,  -74.278,  447.120,  -99.630,  1.01000,  0,  1458.00,  0.00000,  0.26310,  0.00000,  0.00000,  1.00000,  1,  100.0,  1215.00,  364.500
5263,  '1',  1215.000,  -99.630,  447.120,  -99.630,  1.01000,  0,  1458.00,  0.00000,  0.16260,  0.00000,  0.00000,  1.00000,  1,  100.0,  1215.00,  364.500
5281,  '1',  192.770,  -29.720,  136.280,  -29.720,  1.00000,  0,  321.280,  0.00000,  0.10660,  0.00000,  0.00000,  1.00000,  1,  100.0,  267.730,  80.320
5282,  '1',  192.770,  -29.720,  136.280,  -29.720,  1.00000,  0,  321.280,  0.00000,  0.23940,  0.00000,  0.00000,  1.00000,  1,  100.0,  267.730,  80.320
5283,  '1',  192.760,  -29.720,  136.280,  -29.720,  1.00000,  0,  321.280,  0.00000,  0.10650,  0.00000,  0.00000,  1.00000,  1,  100.0,  267.730,  80.320
5297,  '1',  0.000,  0.000,  1.630,  -0.360,  1.04000,  0,  3.840,  0.00000,  0.19100,  0.00000,  0.00000,  1.00000,  0,  100.0,  3.200,  0.960
5298,  '1',  66.700,  58.530,  58.530,  -12.760,  1.04000,  0,  138.000,  0.00000,  0.13260,  0.00000,  0.00000,  1.00000,  1,  100.0,  115.000,  34.500
5299,  '1',  66.700,  48.997,  58.530,  -12.760,  1.04000,  0,  138.000,  0.00000,  0.32280,  0.00000,  0.00000,  1.00000,  1,  100.0,  115.000,  34.500
5300,  '1',  66.700,  58.530,  58.530,  -12.760,  1.04000,  0,  138.000,  0.00000,  0.21910,  0.00000,  0.00000,  1.00000,  1,  100.0,  115.000,  34.500
5301,  '1',  0.000,  42.090,  42.090,  -9.180,  1.04000,  0,  99.240,  0.00000,  0.19640,  0.00000,  0.00000,  1.00000,  0,  100.0,  82.700,  24.810
5302,  '1',  398.830,  68.702,  236.050,  -51.480,  1.04000,  0,  556.500,  0.00000,  0.13300,  0.00000,  0.00000,  1.00000,  1,  100.0,  463.750,  139.130
5303,  '1',  398.830,  88.294,  236.050,  -51.480,  1.04000,  0,  556.500,  0.00000,  0.17920,  0.00000,  0.00000,  1.00000,  1,  100.0,  463.750,  139.130
5319,  '1',  189.220,  -29.170,  133.770,  -29.170,  1.01000,  0,  315.360,  0.00000,  0.25070,  0.00000,  0.00000,  1.00000,  1,  100.0,  262.800,  78.840
5320,  '1',  189.220,  -28.354,  133.770,  -29.170,  1.01000,  0,  315.360,  0.00000,  0.28140,  0.00000,  0.00000,  1.00000,  1,  100.0,  262.800,  78.840
5321,  '1',  189.220,  -29.170,  133.770,  -29.170,  1.01000,  0,  315.360,  0.00000,  0.12810,  0.00000,  0.00000,  1.00000,  1,  100.0,  262.800,  78.840
5324,  '1',  284.070,  63.323,  144.590,  -31.530,  1.04000,  0,  340.880,  0.00000,  0.21670,  0.00000,  0.00000,  1.00000,  1,  100.0,  284.070,  85.220
5325,  '1',  284.070,  65.382,  144.590,  -31.530,  1.04000,  0,  340.880,  0.00000,  0.15030,  0.00000,  0.00000,  1.00000,  1,  100.0,  284.070,  85.220
5326,  '1',  284.070,  144.590,  144.590,  -31.530,  1.04000,  0,  340.880,  0.00000,  0.18810,  0.00000,  0.00000,  1.00000,  1,  100.0,  284.070,  85.220
5343,  '1',  46.231,  25.231,  79.667,  -3.430,  1.04000,  0,  84.000,  0.00000,  0.24140,  0.00000,  0.00000,  1.00000,  1,  100.0,  207.500,  0.000
5360,  '1',  418.281,  -44.144,  469.730,  -122.980,  1.01000,  0,  1209.60,  0.00000,  0.25510,  0.00000,  0.00000,  1.00000,  1,  100.0,  1008.00,  302.400
5363,  '1',  0.000,  -1.150,  5.290,  -1.150,  1.00000,  0,  12.480,  0.00000,  0.25820,  0.00000,  0.00000,  1.00000,  0,  100.0,  10.400,  3.120
5364,  '1',  183.460,  -23.680,  108.590,  -23.680,  1.00000,  0,  256.000,  0.00000,  0.13030,  0.00000,  0.00000,  1.00000,  1,  100.0,  213.330,  64.000
5365,  '1',  183.460,  -23.680,  108.590,  -23.680,  1.00000,  0,  256.000,  0.00000,  0.11650,  0.00000,  0.00000,  1.00000,  1,  100.0,  213.330,  64.000
5366,  '1',  183.460,  -23.680,  108.590,  -23.680,  1.00000,  0,  256.000,  0.00000,  0.15490,  0.00000,  0.00000,  1.00000,  1,  100.0,  213.330,  64.000
5367,  '1',  183.460,  -23.680,  108.590,  -23.680,  1.00000,  0,  256.000,  0.00000,  0.10020,  0.00000,  0.00000,  1.00000,  1,  100.0,  213.330,  64.000
5368,  '1',  183.460,  -23.680,  108.590,  -23.680,  1.00000,  0,  256.000,  0.00000,  0.36180,  0.00000,  0.00000,  1.00000,  1,  100.0,  213.330,  64.000
5369,  '1',  183.460,  -23.680,  108.590,  -23.680,  1.00000,  0,  256.000,  0.00000,  0.24440,  0.00000,  0.00000,  1.00000,  1,  100.0,  213.330,  64.000
5382,  '1',  209.000,  106.380,  106.380,  -23.200,  1.04000,  0,  250.800,  0.00000,  0.24770,  0.00000,  0.00000,  1.00000,  1,  100.0,  209.000,  62.700
5383,  '1',  209.000,  101.589,  106.380,  -23.200,  1.04000,  0,  250.800,  0.00000,  0.39820,  0.00000,  0.00000,  1.00000,  1,  100.0,  209.000,  62.700
5403,  '1',  0.000,  45.500,  45.500,  -9.920,  1.03000,  0,  107.280,  0.00000,  0.19850,  0.00000,  0.00000,  1.00000,  0,  100.0,  89.400,  26.820
5404,  '1',  0.000,  45.500,  45.500,  -9.920,  1.03000,  0,  107.280,  0.00000,  0.13470,  0.00000,  0.00000,  1.00000,  0,  100.0,  89.400,  26.820
5405,  '1',  0.000,  45.500,  45.500,  -9.920,  1.03000,  0,  107.280,  0.00000,  0.14170,  0.00000,  0.00000,  1.00000,  0,  100.0,  89.400,  26.820
5406,  '1',  0.000,  45.500,  45.500,  -9.920,  1.03000,  0,  107.280,  0.00000,  0.12270,  0.00000,  0.00000,  1.00000,  0,  100.0,  89.400,  26.820
5415,  '1',  70.760,  -13.540,  62.100,  -13.540,  1.00000,  0,  146.400,  0.00000,  0.14030,  0.00000,  0.00000,  1.00000,  1,  100.0,  122.000,  36.600
5416,  '1',  70.760,  -13.540,  62.100,  -13.540,  1.00000,  0,  146.400,  0.00000,  0.26480,  0.00000,  0.00000,  1.00000,  1,  100.0,  122.000,  36.600
5417,  '1',  70.760,  -13.540,  62.100,  -13.540,  1.00000,  0,  146.400,  0.00000,  0.16960,  0.00000,  0.00000,  1.00000,  1,  100.0,  122.000,  36.600
5418,  '1',  68.900,  -13.190,  60.470,  -13.190,  1.00000,  0,  142.560,  0.00000,  0.34000,  0.00000,  0.00000,  1.00000,  1,  100.0,  118.800,  35.640
5419,  '1',  68.900,  -13.190,  60.470,  -13.190,  1.00000,  0,  142.560,  0.00000,  0.16420,  0.00000,  0.00000,  1.00000,  1,  100.0,  118.800,  35.640
5423,  '1',  0.000,  -1.380,  6.310,  -1.380,  1.00000,  0,  14.880,  0.00000,  0.12320,  0.00000,  0.00000,  1.00000,  0,  100.0,  12.400,  3.720
5424,  '1',  0.000,  0.000,  1.630,  -0.360,  1.00000,  0,  3.840,  0.00000,  0.18820,  0.00000,  0.00000,  1.00000,  0,  100.0,  3.200,  0.960
5444,  '1',  1412.380,  -223.840,  1026.440,  -223.840,  1.01000,  0,  2419.92,  0.00000,  0.34260,  0.00000,  0.00000,  1.00000,  1,  100.0,  2016.60,  604.980
6006,  '1',  183.180,  37.927,  108.420,  -23.640,  1.04000,  0,  255.600,  0.00000,  0.18770,  0.00000,  0.00000,  1.00000,  1,  100.0,  213.000,  63.900
6007,  '1',  426.000,  61.618,  216.830,  -47.290,  1.04000,  0,  511.200,  0.00000,  0.13420,  0.00000,  0.00000,  1.00000,  1,  100.0,  426.000,  127.800
6008,  '1',  142.800,  33.450,  100.950,  -22.010,  1.04000,  0,  238.000,  0.00000,  0.20160,  0.00000,  0.00000,  1.00000,  1,  100.0,  198.330,  59.500
6009,  '1',  142.800,  20.631,  100.950,  -22.010,  1.04000,  0,  238.000,  0.00000,  0.18430,  0.00000,  0.00000,  1.00000,  1,  100.0,  198.330,  59.500
6010,  '1',  142.800,  27.860,  100.950,  -22.010,  1.04000,  0,  238.000,  0.00000,  0.15620,  0.00000,  0.00000,  1.00000,  1,  100.0,  198.330,  59.500
6042,  '1',  71.340,  19.242,  122.908,  -5.290,  1.04000,  0,  129.600,  0.00000,  0.18770,  0.00000,  0.00000,  1.00000,  1,  100.0,  320.200,  0.000
6048,  '1',  0.000,  0.000,  1.730,  -0.380,  1.04000,  0,  4.080,  0.00000,  0.11720,  0.00000,  0.00000,  1.00000,  0,  100.0,  3.400,  1.020
6049,  '1',  0.000,  4.890,  4.890,  -1.070,  1.04000,  0,  11.520,  0.00000,  0.18260,  0.00000,  0.00000,  1.00000,  0,  100.0,  9.600,  2.880
6050,  '1',  0.000,  0.000,  2.240,  -0.490,  1.04000,  0,  5.280,  0.00000,  0.36280,  0.00000,  0.00000,  1.00000,  0,  100.0,  4.400,  1.320
6052,  '1',  0.000,  29.220,  29.220,  -6.370,  1.04000,  0,  68.880,  0.00000,  0.12090,  0.00000,  0.00000,  1.00000,  0,  100.0,  57.400,  17.220
6069,  '1',  130.590,  24.136,  92.320,  -20.130,  1.03000,  0,  217.640,  0.00000,  0.22480,  0.00000,  0.00000,  1.00000,  1,  100.0,  181.370,  54.410
6070,  '1',  130.590,  10.996,  92.320,  -20.130,  1.03000,  0,  217.640,  0.00000,  0.24660,  0.00000,  0.00000,  1.00000,  1,  100.0,  181.370,  54.410
6071,  '1',  130.590,  31.322,  92.320,  -20.130,  1.03000,  0,  217.640,  0.00000,  0.15280,  0.00000,  0.00000,  1.00000,  1,  100.0,  181.370,  54.410
6072,  '1',  130.590,  13.419,  92.320,  -20.130,  1.03000,  0,  217.640,  0.00000,  0.19250,  0.00000,  0.00000,  1.00000,  1,  100.0,  181.370,  54.410
6073,  '1',  130.590,  18.470,  92.320,  -20.130,  1.03000,  0,  217.640,  0.00000,  0.14260,  0.00000,  0.00000,  1.00000,  1,  100.0,  181.370,  54.410
6074,  '1',  130.590,  17.792,  92.320,  -20.130,  1.03000,  0,  217.640,  0.00000,  0.11150,  0.00000,  0.00000,  1.00000,  1,  100.0,  181.370,  54.410
6078,  '1',  169.000,  9.879,  262.510,  -68.730,  1.00000,  0,  676.000,  0.00000,  0.28900,  0.00000,  0.00000,  1.00000,  1,  100.0,  563.330,  169.000
6079,  '1',  169.000,  20.602,  262.510,  -68.730,  1.00000,  0,  676.000,  0.00000,  0.25330,  0.00000,  0.00000,  1.00000,  1,  100.0,  563.330,  169.000
6080,  '1',  169.000,  15.809,  262.510,  -68.730,  1.00000,  0,  676.000,  0.00000,  0.32510,  0.00000,  0.00000,  1.00000,  1,  100.0,  563.330,  169.000
6085,  '1',  0.000,  0.000,  0.000,  0.000,  1.04000,  0,  1.680,  0.00000,  1.00000,  0.00000,  0.00000,  1.00000,  0,  100.0,  1.400,  0.420
6086,  '1',  0.000,  0.000,  0.000,  0.000,  1.04000,  0,  36.000,  0.00000,  1.00000,  0.00000,  0.00000,  1.00000,  0,  100.0,  30.000,  9.000
6087,  '1',  0.000,  0.000,  0.000,  0.000,  1.04000,  0,  6.600,  0.00000,  1.00000,  0.00000,  0.00000,  1.00000,  0,  100.0,  5.500,  1.650
6088,  '1',  0.000,  0.000,  0.000,  0.000,  1.04000,  0,  12.720,  0.00000,  1.00000,  0.00000,  0.00000,  1.00000,  0,  100.0,  10.600,  3.180
6089,  '1',  0.000,  0.000,  0.000,  0.000,  1.04000,  0,  16.680,  0.00000,  1.00000,  0.00000,  0.00000,  1.00000,  0,  100.0,  13.900,  4.170
6090,  '1',  0.000,  0.000,  0.000,  0.000,  1.04000,  0,  48.840,  0.00000,  1.00000,  0.00000,  0.00000,  1.00000,  0,  100.0,  40.700,  12.210
6104,  '1',  0.000,  30.790,  30.790,  -6.720,  1.04000,  0,  72.600,  0.00000,  0.21100,  0.00000,  0.00000,  1.00000,  0,  100.0,  60.500,  18.150
6105,  '1',  0.000,  30.790,  30.790,  -6.720,  1.04000,  0,  72.600,  0.00000,  0.31280,  0.00000,  0.00000,  1.00000,  0,  100.0,  60.500,  18.150
6106,  '1',  70.180,  61.590,  61.590,  -13.430,  1.04000,  0,  145.200,  0.00000,  0.12010,  0.00000,  0.00000,  1.00000,  1,  100.0,  121.000,  36.300
6110,  '1',  177.180,  81.032,  275.220,  -72.050,  1.04000,  0,  708.720,  0.00000,  0.16800,  0.00000,  0.00000,  1.00000,  1,  100.0,  590.600,  177.180
6111,  '1',  198.450,  82.045,  308.260,  -80.700,  1.04000,  0,  793.800,  0.00000,  0.21900,  0.00000,  0.00000,  1.00000,  1,  100.0,  661.500,  198.450
6144,  '1',  0.000,  -0.930,  4.280,  -0.930,  1.03000,  0,  10.080,  0.00000,  0.21910,  0.00000,  0.00000,  1.00000,  0,  100.0,  8.400,  2.520
6145,  '1',  446.000,  35.096,  227.010,  -49.510,  1.03000,  0,  535.200,  0.00000,  0.14770,  0.00000,  0.00000,  1.00000,  1,  100.0,  446.000,  133.800
6146,  '1',  446.000,  35.953,  227.010,  -49.510,  1.03000,  0,  535.200,  0.00000,  0.11950,  0.00000,  0.00000,  1.00000,  1,  100.0,  446.000,  133.800
6147,  '1',  288.222,  31.950,  474.390,  -103.450,  1.03000,  0,  1118.40,  0.00000,  0.10440,  0.00000,  0.00000,  1.00000,  1,  100.0,  932.000,  279.600
6148,  '1',  418.800,  50.540,  367.500,  -80.140,  1.03000,  0,  866.400,  0.00000,  0.23830,  0.00000,  0.00000,  1.00000,  1,  100.0,  722.000,  216.600
6149,  '1',  418.760,  94.740,  367.500,  -80.140,  1.03000,  0,  866.400,  0.00000,  0.12770,  0.00000,  0.00000,  1.00000,  1,  100.0,  722.000,  216.600
6164,  '1',  202.140,  46.011,  119.640,  -26.090,  1.03000,  0,  282.060,  0.00000,  0.30070,  0.00000,  0.00000,  1.00000,  1,  100.0,  235.050,  70.520
6165,  '1',  202.140,  40.656,  119.640,  -26.090,  1.03000,  0,  282.060,  0.00000,  0.18390,  0.00000,  0.00000,  1.00000,  1,  100.0,  235.050,  70.520
6166,  '1',  202.140,  95.639,  119.640,  -26.090,  1.03000,  0,  282.060,  0.00000,  0.25100,  0.00000,  0.00000,  1.00000,  1,  100.0,  235.050,  70.520
...
 0 /End of Generator data, Begin Branch data
1001,  1064,  '1',  0.00524,  0.03580,  0.00609,  221.00,  0.00,  0.00,  0.00000,  0.000,  0.00000,  0.00000,  0.00000,  0.00000,  1
1001,  1064,  '2',  0.00524,  0.03580,  0.00609,  221.00,  0.00,  0.00,  0.00000,  0.000,  0.00000,  0.00000,  0.00000,  0.00000,  1
1001,  1071,  '1',  0.00435,  0.02808,  0.00536,  221.00,  0.00,  0.00,  0.00000,  0.000,  0.00000,  0.00000,  0.00000,  0.00000,  1
1001,  1071,  '2',  0.00435,  0.02808,  0.00536,  221.00,  0.00,  0.00,  0.00000,  0.000,  0.00000,  0.00000,  0.00000,  0.00000,  1
1001,  11001,  '1',  0.00000,  0.04733,  0.00000,  25.35,  0.00,  0.00,  1.00000,  -2.091,  0.00000,  0.00000,  0.00000,  0.00000,  1
1002,  1007,  '1',  0.07776,  0.46693,  0.06336,  98.00,  0.00,  0.00,  0.00000,  0.000,  0.00000,  0.00000,  0.00000,  0.00000,  1
1002,  -1010,  '1',  0.05552,  0.13570,  0.01777,  98.00,  0.00,  0.00,  0.00000,  0.000,  0.00000,  0.00000,  0.00000,  0.00000,  1
1002,  11002,  '1',  0.00000,  0.06688,  0.00000,  17.94,  0.00,  0.00,  1.00000,  -2.194,  0.00000,  0.00000,  0.00000,  0.00000,  1
1004,  1003,  '1',  0.00450,  0.11582,  0.00000,  250.00,  0.00,  0.00,  1.00000,  0.000,  0.00000,  0.00000,  0.00000,  0.00000,  1
1003,  -1022,  '1',  0.00485,  0.02012,  0.00341,  221.00,  0.00,  0.00,  0.00000,  0.000,  0.00000,  0.00000,  0.00000,  0.00000,  1
1003,  -1055,  '1',  0.01574,  0.03782,  0.00513,  98.00,  0.00,  0.00,  0.00000,  0.000,  0.00000,  0.00000,  0.00000,  0.00000,  1
1004,  3133,  '1',  0.00420,  0.03000,  0.05500,  523.00,  0.00,  0.00,  0.00000,  0.000,  0.00000,  0.00000,  0.00000,  0.00000,  1
1006,  1005,  '1',  0.01300,  0.13000,  0.00000,  42.00,  0.00,  0.00,  1.00000,  0.000,  0.00000,  0.00000,  0.00000,  0.00000,  1
1005,  -1025,  '1',  0.01842,  0.08210,  0.01204,  149.00,  0.00,  0.00,  0.00000,  0.000,  0.00000,  0.00000,  0.00000,  0.00000,  1
1005,  1061,  '1',  0.00599,  0.02484,  0.00422,  221.00,  0.00,  0.00,  0.00000,  0.000,  0.00000,  0.00000,  0.00000,  0.00000,  1
1005,  -1067,  '1',  0.01711,  0.04181,  0.00548,  98.00,  0.00,  0.00,  0.00000,  0.000,  0.00000,  0.00000,  0.00000,  0.00000,  1
1007,  1015,  '1',  0.06224,  0.37375,  0.05072,  98.00,  0.00,  0.00,  0.00000,  0.000,  0.00000,  0.00000,  0.00000,  0.00000,  1
1007,  -1031,  '1',  0.04803,  0.27434,  0.04123,  98.00,  0.00,  0.00,  0.00000,  0.000,  0.00000,  0.00000,  0.00000,  0.00000,  1
1007,  11007,  '1',  0.00000,  0.13787,  0.00000,  8.70,  0.00,  0.00,  1.00000,  -2.134,  0.00000,  0.00000,  0.00000,  0.00000,  1
1009,  1008,  '1',  0.00455,  0.09471,  0.00000,  120.00,  0.00,  0.00,  1.00000,  0.000,  0.00000,  0.00000,  0.00000,  0.00000,  1
1008,  1032,  '1',  0.04501,  0.11002,  0.01441,  98.00,  0.00,  0.00,  0.00000,  0.000,  0.00000,  0.00000,  0.00000,  0.00000,  1
1008,  1069,  '1',  0.00830,  0.03628,  0.00553,  149.00,  0.00,  0.00,  0.00000,  0.000,  0.00000,  0.00000,  0.00000,  0.00000,  1
1011,  1010,  '1',  0.01300,  0.13000,  0.00000,  46.00,  0.00,  0.00,  1.00000,  0.000,  0.00000,  0.00000,  0.00000,  0.00000,  1
1010,  1015,  '1',  0.04703,  0.28243,  0.03833,  98.00,  0.00,  0.00,  0.00000,  0.000,  0.00000,  0.00000,  0.00000,  0.00000,  1
1010,  1030,  '1',  0.06160,  0.36990,  0.05020,  98.00,  0.00,  0.00,  0.00000,  0.000,  0.00000,  0.00000,  0.00000,  0.00000,  1
1012,  1087,  '1',  0.04934,  0.20469,  0.03473,  149.00,  0.00,  0.00,  0.00000,  0.000,  0.00000,  0.00000,  0.00000,  0.00000,  1
1012,  -3051,  '1',  0.05710,  0.24977,  0.03804,  149.00,  0.00,  0.00,  0.00000,  0.000,  0.00000,  0.00000,  0.00000,  0.00000,  1
1012,  11012,  '1',  0.00000,  0.39299,  0.00000,  3.05,  0.00,  0.00,  1.00000,  -2.348,  0.00000,  0.00000,  0.00000,  0.00000,  1
1013,  1031,  '1',  0.04509,  0.27078,  0.03675,  98.00,  0.00,  0.00,  0.00000,  0.000,  0.00000,  0.00000,  0.00000,  0.00000,  1
1013,  -1047,  '1',  0.00947,  0.06117,  0.01167,  221.00,  0.00,  0.00,  0.00000,  0.000,  0.00000,  0.00000,  0.00000,  0.00000,  1
1013,  -1086,  '1',  0.07900,  0.19311,  0.02529,  98.00,  0.00,  0.00,  0.00000,  0.000,  0.00000,  0.00000,  0.00000,  0.00000,  1
1013,  11013,  '1',  0.00000,  0.03691,  0.00000,  32.51,  0.00,  0.00,  1.00000,  -1.925,  0.00000,  0.00000,  0.00000,  0.00000,  1
1014,  1047,  '1',  0.03566,  0.14794,  0.02510,  149.00,  0.00,  0.00,  0.00000,  0.000,  0.00000,  0.00000,  0.00000,  0.00000,  1
1014,  1083,  '1',  0.04105,  0.18293,  0.02682,  149.00,  0.00,  0.00,  0.00000,  0.000,  0.00000,  0.00000,  0.00000,  0.00000,  1
1014,  11014,  '1',  0.00000,  0.44437,  0.00000,  2.70,  0.00,  0.00,  1.00000,  -2.004,  0.00000,  0.00000,  0.00000,  0.00000,  1
1015,  11015,  '1',  0.00000,  0.13723,  0.00000,  8.74,  0.00,  0.00,  1.00000,  -2.180,  0.00000,  0.00000,  0.00000,  0.00000,  1
1016,  1034,  '1',  0.01828,  0.10976,  0.01489,  98.00,  0.00,  0.00,  0.00000,  0.000,  0.00000,  0.00000,  0.00000,  0.00000,  1
1016,  -1068,  '1',  0.02773,  0.15837,  0.02380,  98.00,  0.00,  0.00,  0.00000,  0.000,  0.00000,  0.00000,  0.00000,  0.00000,  1
1016,  11016,  '1',  0.00000,  0.33185,  0.00000,  3.62,  0.00,  0.00,  1.00000,  -2.354,  0.00000,  0.00000,  0.00000,  0.00000,  1
1017,  -1018,  '1',  0.03227,  0.07887,  0.01033,  98.00,  0.00,  0.00,  0.00000,  0.000,  0.00000,  0.00000,  0.00000,  0.00000,  1
1017,  1029,  '1',  0.03244,  0.14188,  0.02161,  149.00,  0.00,  0.00,  0.00000,  0.000,  0.00000,  0.00000,  0.00000,  0.00000,  1
1017,  -1037,  '1',  0.00752,  0.03352,  0.00491,  221.00,  0.00,  0.00,  0.00000,  0.000,  0.00000,  0.00000,  0.00000,  0.00000,  1
1017,  -1047,  '1',  0.03600,  0.15600,  0.02400,  150.00,  0.00,  0.00,  0.00000,  0.000,  0.00000,  0.00000,  0.00000,  0.00000,  1
1017,  11017,  '1',  0.00000,  0.04897,  0.00000,  24.50,  0.00,  0.00,  1.00000,  -2.104,  0.00000,  0.00000,  0.00000,  0.00000,  1
1018,  -1024,  '1',  0.01094,  0.06572,  0.00892,  98.00,  0.00,  0.00,  0.00000,  0.000,  0.00000,  0.00000,  0.00000,  0.00000,  1
1018,  11018,  '1',  0.00000,  13.63696,  0.00000,  0.09,  0.00,  0.00,  1.00000,  -2.108,  0.00000,  0.00000,  0.00000,  0.00000,  1
1019,  1040,  '1',  0.04978,  0.20651,  0.03504,  149.00,  0.00,  0.00,  0.00000,  0.000,  0.00000,  0.00000,  0.00000,  0.00000,  1
1019,  1045,  '1',  0.01522,  0.03720,  0.00487,  221.00,  0.00,  0.00,  0.00000,  0.000,  0.00000,  0.00000,  0.00000,  0.00000,  1
1019,  1071,  '1',  0.00440,  0.02800,  0.00540,  225.00,  0.00,  0.00,  0.00000,  0.000,  0.00000,  0.00000,  0.00000,  0.00000,  1
1019,  -1071,  '2',  0.00440,  0.02800,  0.00540,  225.00,  0.00,  0.00,  0.00000,  0.000,  0.00000,  0.00000,  0.00000,  0.00000,  1
1019,  1084,  '1',  0.03000,  0.16000,  0.02500,  220.00,  0.00,  0.00,  0.00000,  0.000,  0.00000,  0.00000,  0.00000,  0.00000,  1
1019,  11019,  '1',  0.00000,  0.01677,  0.00000,  71.55,  0.00,  0.00,  1.00000,  -2.106,  0.00000,  0.00000,  0.00000,  0.00000,  1
1021,  1020,  '1',  0.00327,  0.07812,  0.00000,  250.00,  0.00,  0.00,  1.00000,  0.000,  0.00000,  0.00000,  0.00000,  0.00000,  1
1020,  -1025,  '1',  0.00828,  0.03434,  0.00583,  149.00,  0.00,  0.00,  0.00000,  0.000,  0.00000,  0.00000,  0.00000,  0.00000,  1
1020,  -1084,  '1',  0.01056,  0.06337,  0.00860,  221.00,  0.00,  0.00,  0.00000,  0.000,  0.00000,  0.00000,  0.00000,  0.00000,  1
1020,  3059,  '1',  0.01890,  0.06000,  0.00600,  300.00,  0.00,  0.00,  0.00000,  0.000,  0.00000,  0.00000,  0.00000,  0.00000,  1
1020,  3130,  '1',  0.00996,  0.06938,  0.01134,  221.00,  0.00,  0.00,  0.00000,  0.000,  0.00000,  0.00000,  0.00000,  0.00000,  1
1023,  1022,  '1',  0.00535,  0.11733,  0.00000,  250.00,  0.00,  0.00,  1.00000,  0.000,  0.00000,  0.00000,  0.00000,  0.00000,  1
1022,  1028,  '1',  0.01433,  0.09253,  0.01765,  221.00,  0.00,  0.00,  0.00000,  0.000,  0.00000,  0.00000,  0.00000,  0.00000,  1
1022,  1028,  '2',  0.01433,  0.09253,  0.01765,  221.00,  0.00,  0.00,  0.00000,  0.000,  0.00000,  0.00000,  0.00000,  0.00000,  1
1024,  1090,  '1',  0.01414,  0.06303,  0.00924,  149.00,  0.00,  0.00,  0.00000,  0.000,  0.00000,  0.00000,  0.00000,  0.00000,  1
1024,  11024,  '1',  0.00000,  0.01549,  0.00000,  77.47,  0.00,  0.00,  1.00000,  -2.111,  0.00000,  0.00000,  0.00000,  0.00000,  1
1026,  1025,  '1',  0.01300,  0.13000,  0.00000,  200.00,  0.00,  0.00,  1.00000,  0.000,  0.00000,  0.00000,  0.00000,  0.00000,  1
1027,  1045,  '1',  0.02505,  0.10957,  0.01669,  221.00,  0.00,  0.00,  0.00000,  0.000,  0.00000,  0.00000,  0.00000,  0.00000,  1
1027,  -1056,  '1',  0.03121,  0.07630,  0.00999,  250.00,  0.00,  0.00,  0.00000,  0.000,  0.00000,  0.00000,  0.00000,  0.00000,  1
1027,  11027,  '1',  0.00000,  0.01184,  0.00000,  101.39,  0.00,  0.00,  1.00000,  -2.276,  0.00000,  0.00000,  0.00000,  0.00000,  1
1028,  3109,  '1',  0.00428,  0.01875,  0.00286,  250.00,  0.00,  0.00,  0.00000,  0.000,  0.00000,  0.00000,  0.00000,  0.00000,  1
1028,  11028,  '1',  0.00000,  0.11578,  0.00000,  10.36,  0.00,  0.00,  1.00000,  -2.247,  0.00000,  0.00000,  0.00000,  0.00000,  1
1029,  1056,  '1',  0.02054,  0.11733,  0.01763,  221.00,  0.00,  0.00,  0.00000,  0.000,  0.00000,  0.00000,  0.00000,  0.00000,  1
1029,  11029,  '1',  0.00000,  0.01069,  0.00000,  112.27,  0.00,  0.00,  1.00000,  -2.273,  0.00000,  0.00000,  0.00000,  0.00000,  1
1030,  1038,  '1',  0.07404,  0.42285,  0.06354,  98.00,  0.00,  0.00,  0.00000,  0.000,  0.00000,  0.00000,  0.00000,  0.00000,  1
1030,  -1083,  '1',  0.06537,  0.37334,  0.05610,  98.00,  0.00,  0.00,  0.00000,  0.000,  0.00000,  0.00000,  0.00000,  0.00000,  1
1030,  11030,  '1',  0.00000,  0.04466,  0.00000,  26.87,  0.00,  0.00,  1.00000,  -2.207,  0.00000,  0.00000,  0.00000,  0.00000,  1
1031,  11031,  '1',  0.00000,  0.17487,  0.00000,  6.86,  0.00,  0.00,  1.00000,  -2.039,  0.00000,  0.00000,  0.00000,  0.00000,  1
1033,  1032,  '1',  0.00283,  0.06758,  0.00000,  170.00,  0.00,  0.00,  1.00000,  0.000,  0.00000,  0.00000,  0.00000,  0.00000,  1
1032,  1036,  '1',  0.01956,  0.11746,  0.01594,  98.00,  0.00,  0.00,  0.00000,  0.000,  0.00000,  0.00000,  0.00000,  0.00000,  1
1032,  -1038,  '1',  0.04500,  0.11000,  0.01500,  155.00,  0.00,  0.00,  0.00000,  0.000,  0.00000,  0.00000,  0.00000,  0.00000,  1
1033,  1081,  '1',  0.00300,  0.03100,  0.05900,  548.00,  0.00,  0.00,  0.00000,  0.000,  0.00000,  0.00000,  0.00000,  0.00000,  1
1033,  3050,  '1',  0.01390,  0.13600,  0.26200,  647.00,  0.00,  0.00,  0.00000,  0.000,  0.00000,  0.00000,  0.00000,  0.00000,  1
...